Circuit: * E:\Power Supply\Draft1.asc

Direct Newton iteration for .op point succeeded.
Ignoring empty pin current: Ix(u1:1)
Ignoring empty pin current: Ix(u1:2)
Ignoring empty pin current: Ix(u1:1)
Ignoring empty pin current: Ix(u1:2)

Date: Fri Dec 22 13:05:49 2023
Total elapsed time: 0.306 seconds.

tnom = 27
temp = 27
method = modified trap
totiter = 20037
traniter = 20034
tranpoints = 10018
accept = 10018
rejected = 0
matrix size = 8
fillins = 1
solver = Normal
Avg thread counts: 1.1/1.3/1.3/1.1
Matrix Compiler1: 354 bytes object code size  0.2/0.1/[0.1]
Matrix Compiler2: off  [0.1]/0.1/0.1

