LTspice 24.0.12 for Windows
Circuit: * D:\Power Supply\Draft3.asc
Start Time: Thu Oct  3 21:36:25 2024
Warning: Multiple definitions of model "2scr375p" Type: BJT
Warning: Multiple definitions of model "bc857b" Type: BJT
Warning: Multiple definitions of model "bc847c" Type: BJT
Warning: Multiple definitions of model "bc847b" Type: BJT
Error on line 33 : r30 vcc n018 10k- 1000 
	 Unknown parameter "-"
Error on line 43 : r22 n010 0 10k- 1000 
	 Unknown parameter "-"
solver = Normal
Maximum thread count: 36



WARNING: Less than two connections to node nc_03.  This node is used by q1.
WARNING: Less than two connections to node n002.  This node is used by q1.
WARNING: Less than two connections to node n009.  This node is used by q2.
WARNING: Less than two connections to node n015.  This node is used by q3.
WARNING: Less than two connections to node nc_04.  This node is used by q4.
Direct Newton iteration for .op point succeeded.
Ignoring empty pin current: Ix(u1:1)
Ignoring empty pin current: Ix(u1:2)
Ignoring empty pin current: Ix(u2:1)
Ignoring empty pin current: Ix(u2:2)
Ignoring empty pin current: Ix(u4:1)
Ignoring empty pin current: Ix(u4:2)
Ignoring empty pin current: Ix(u5:1)
Ignoring empty pin current: Ix(u5:2)
Ignoring empty pin current: Ix(u6:1)
Ignoring empty pin current: Ix(u6:2)
Ignoring empty pin current: Ix(u3:1)
Ignoring empty pin current: Ix(u3:2)
Ignoring empty pin current: Ix(u7:1)
Ignoring empty pin current: Ix(u7:2)
Ignoring empty pin current: Ix(u1:1)
Ignoring empty pin current: Ix(u1:2)
Ignoring empty pin current: Ix(u2:1)
Ignoring empty pin current: Ix(u2:2)
Ignoring empty pin current: Ix(u4:1)
Ignoring empty pin current: Ix(u4:2)
Ignoring empty pin current: Ix(u5:1)
Ignoring empty pin current: Ix(u5:2)
Ignoring empty pin current: Ix(u6:1)
Ignoring empty pin current: Ix(u6:2)
Ignoring empty pin current: Ix(u3:1)
Ignoring empty pin current: Ix(u3:2)
Ignoring empty pin current: Ix(u7:1)
Ignoring empty pin current: Ix(u7:2)
.step r=1000



.step r=2000



.step r=3000



.step r=4000



.step r=5000



.step r=6000



.step r=7000



.step r=8000



.step r=9000
tnom = 27
temp = 27
method = modified trap
.step r=10000
Total elapsed time: 10.768 seconds.

