Circuit: * E:\Power Supply\PSU.asc

Direct Newton iteration failed to find .op point.  (Use ".option noopiter" to skip.)
Starting Gmin stepping
Gmin = 10
Gmin = 1.07374
Gmin = 0.115292
Gmin = 0.0123794
Gmin = 0.00132923
Gmin = 0.000142725
vernier = 0.5
vernier = 0.25
vernier = 0.125
Gmin = 8.33655e-05
vernier = 0.0625
vernier = 0.03125
vernier = 0.0416667
Gmin = 7.93574e-05
vernier = 0.0555555
Gmin = 7.03288e-05
vernier = 0.074074
vernier = 0.0987653
Gmin = 5.77497e-05
vernier = 0.131687
vernier = 0.175583
Gmin = 4.23359e-05
vernier = 0.23411
Gmin = 2.56988e-05
vernier = 0.312147
vernier = 0.416196
Gmin = 1.14933e-05
vernier = 0.554928
vernier = 0.739903
Gmin = 3.30553e-06
vernier = 0.986537
Gmin = 4.69892e-07
vernier = 1
Gmin = 5.05905e-08
Gmin = 5.43211e-09
Gmin = 5.83268e-10
Gmin = 6.2628e-11
Gmin = 6.72463e-12
Gmin = 7.22051e-13
Gmin = 0
Gmin stepping succeeded in finding the operating point.

Ignoring empty pin current: Ix(u3:1)
Ignoring empty pin current: Ix(u3:2)
Ignoring empty pin current: Ix(u3:1)
Ignoring empty pin current: Ix(u3:2)

Date: Thu Dec 21 22:21:11 2023
Total elapsed time: 0.701 seconds.

tnom = 27
temp = 27
method = modified trap
totiter = 21277
traniter = 20034
tranpoints = 10018
accept = 10018
rejected = 0
matrix size = 30
fillins = 12
solver = Normal
Avg thread counts: 1.1/1.3/1.3/1.1
Matrix Compiler1: 3.38 KB object code size  0.9/0.6/[0.3]
Matrix Compiler2: 2.83 KB object code size  0.6/0.5/[0.2]

